
OS:Version,
  {a9ff22f3-d298-4149-a938-327164dd13cd}, !- Handle
  2.9.1;                                  !- Version Identifier

OS:Schedule:Constant,
  {b7753add-ca61-4544-81dc-fe7804c2124b}, !- Handle
  Always On Discrete,                     !- Name
  {34731b56-d340-441d-8a1a-d411c59e6e13}, !- Schedule Type Limits Name
  1;                                      !- Value

OS:ScheduleTypeLimits,
  {34731b56-d340-441d-8a1a-d411c59e6e13}, !- Handle
  Always On Discrete Limits,              !- Name
  0,                                      !- Lower Limit Value
  1,                                      !- Upper Limit Value
  Discrete,                               !- Numeric Type
  Availability;                           !- Unit Type

OS:ClimateZones,
  {8a3ac41c-57d4-48e4-a48e-1f232e262211}, !- Handle
  ,                                       !- Active Institution
  ,                                       !- Active Year
  ASHRAE,                                 !- Climate Zone Institution Name 1
  ANSI/ASHRAE Standard 169,               !- Climate Zone Document Name 1
  2006,                                   !- Climate Zone Document Year 1
  ,                                       !- Climate Zone Value 1
  CEC,                                    !- Climate Zone Institution Name 2
  California Climate Zone Descriptions,   !- Climate Zone Document Name 2
  1995,                                   !- Climate Zone Document Year 2
  ;                                       !- Climate Zone Value 2

OS:LifeCycleCost:Parameters,
  {1d4d0f18-e6dd-45c8-896c-f4f2a89e6ae5}, !- Handle
  FEMP,                                   !- Analysis Type
  ,                                       !- Discounting Convention
  ,                                       !- Inflation Approach
  ,                                       !- Real Discount Rate
  ,                                       !- Nominal Discount Rate
  ,                                       !- Inflation
  ,                                       !- Base Date Month
  ,                                       !- Base Date Year
  ,                                       !- Service Date Month
  ,                                       !- Service Date Year
  ,                                       !- Length of Study Period in Years
  ,                                       !- Tax Rate
  ,                                       !- Depreciation Method
  Yes;                                    !- Use NIST Fuel Escalation Rates

OS:YearDescription,
  {c1349a5a-d7e1-4ed9-8e5b-24480649c25c}; !- Handle

OS:RadianceParameters,
  {8297fd56-36de-4b79-a182-b7636f4ae3e3}, !- Handle
  1,                                      !- Accumulated Rays per Record
  0,                                      !- Direct Threshold
  1,                                      !- Direct Certainty
  1,                                      !- Direct Jitter
  1,                                      !- Direct Pretest
  6,                                      !- Ambient Bounces VMX
  2,                                      !- Ambient Bounces DMX
  4050,                                   !- Ambient Divisions VMX
  512,                                    !- Ambient Divisions DMX
  256,                                    !- Ambient Supersamples
  0.001,                                  !- Limit Weight VMX
  0.001,                                  !- Limit Weight DMX
  500,                                    !- Klems Sampling Density
  146;                                    !- Sky Discretization Resolution

OS:SimulationControl,
  {7c57f4fc-548f-44e7-a438-1feca6a75629}; !- Handle

OS:Sizing:Parameters,
  {ee365675-827e-489e-9a24-0f596988dec4}, !- Handle
  1.25,                                   !- Heating Sizing Factor
  1.15;                                   !- Cooling Sizing Factor

OS:ProgramControl,
  {8a7b938e-cdcb-40af-82b1-79c267c36bae}; !- Handle

OS:Timestep,
  {31824a36-2f0f-4919-a534-cdb00e20d2e0}, !- Handle
  6;                                      !- Number of Timesteps per Hour

OS:OutputControl:ReportingTolerances,
  {275082a5-6cfd-4756-972e-8810ab253e29}; !- Handle

OS:ConvergenceLimits,
  {fcca1605-8471-4f2f-a485-a59582311771}; !- Handle

OS:ShadowCalculation,
  {d875de65-75c7-4d9d-883e-07bd79421b67}, !- Handle
  7,                                      !- Calculation Frequency
  15000;                                  !- Maximum Figures in Shadow Overlap Calculations

OS:SurfaceConvectionAlgorithm:Inside,
  {5add9a33-b760-4e82-a0f9-3ae0e369b9c4}, !- Handle
  TARP;                                   !- Algorithm

OS:SurfaceConvectionAlgorithm:Outside,
  {0257be16-14fc-418e-bc73-178201ccc4ec}, !- Handle
  DOE-2;                                  !- Algorithm

OS:HeatBalanceAlgorithm,
  {5a22c4c4-a6a6-4769-b0a8-f79498f98a6d}, !- Handle
  ConductionTransferFunction,             !- Algorithm
  200;                                    !- Surface Temperature Upper Limit {C}

OS:ZoneAirHeatBalanceAlgorithm,
  {24c912f8-6f7f-4792-8ea0-a8d47b3c41a1}, !- Handle
  AnalyticalSolution;                     !- Algorithm

OS:ZoneAirContaminantBalance,
  {07e7d420-4b9b-4760-8a70-01b36aa6074f}; !- Handle

OS:ZoneCapacitanceMultiplier:ResearchSpecial,
  {91056672-db13-4057-9cb7-7ac44d24bfc5}, !- Handle
  ,                                       !- Temperature Capacity Multiplier
  ,                                       !- Humidity Capacity Multiplier
  ;                                       !- Carbon Dioxide Capacity Multiplier

OS:RunPeriod,
  {17c33f47-c9b9-463a-84bc-12596f349148}, !- Handle
  Run Period 1,                           !- Name
  1,                                      !- Begin Month
  1,                                      !- Begin Day of Month
  12,                                     !- End Month
  31,                                     !- End Day of Month
  ,                                       !- Use Weather File Holidays and Special Days
  ,                                       !- Use Weather File Daylight Saving Period
  ,                                       !- Apply Weekend Holiday Rule
  ,                                       !- Use Weather File Rain Indicators
  ,                                       !- Use Weather File Snow Indicators
  ;                                       !- Number of Times Runperiod to be Repeated

OS:Building,
  {e0ce3521-4e53-4eca-8017-2f1c8dec2b50}, !- Handle
  Koios,                                  !- Name
  ,                                       !- Building Sector Type
  0,                                      !- North Axis {deg}
  3.950000736,                            !- Nominal Floor to Floor Height {m}
  {b7a5f342-466a-45ca-ad94-5f1978c28c3c}, !- Space Type Name
  {74962f9b-90ae-4049-a75d-8b43643f775e}, !- Default Construction Set Name
  {ca132dd6-3ad0-4f07-86ec-8dfbc715c195}, !- Default Schedule Set Name
  1,                                      !- Standards Number of Stories
  1,                                      !- Standards Number of Above Ground Stories
  ,                                       !- Standards Template
  ,                                       !- Standards Building Type
  ,                                       !- Standards Number of Living Units
  ,                                       !- Relocatable
  3.950000736;                            !- Nominal Floor to Ceiling Height {m}

OS:Facility,
  {b6e6be84-f909-42a5-9deb-ef70c0296721}; !- Handle

OS:Site,
  {f38b0e3c-04e1-4822-940e-9b46c436222c}, !- Handle
  Site 1,                                 !- Name
  ,                                       !- Latitude {deg}
  ,                                       !- Longitude {deg}
  ,                                       !- Time Zone {hr}
  ,                                       !- Elevation {m}
  ;                                       !- Terrain

OS:SpaceType,
  {87cb2508-6f28-498f-ac40-d37f9803a00e}, !- Handle
  189.1-2009 - Office - BreakRoom - CZ1-3, !- Name
  ,                                       !- Default Construction Set Name
  {80279c36-715b-480e-8c5d-6c8d8ecd687e}, !- Default Schedule Set Name
  {adc5b2ce-af3e-4993-9899-c43b70a42fef}, !- Group Rendering Name
  {8e95baff-ed94-42dd-a7f1-c59e1527a3cc}, !- Design Specification Outdoor Air Object Name
  ,                                       !- Standards Template
  Office,                                 !- Standards Building Type
  BreakRoom;                              !- Standards Space Type

OS:Rendering:Color,
  {adc5b2ce-af3e-4993-9899-c43b70a42fef}, !- Handle
  Rendering Color 1,                      !- Name
  230,                                    !- Rendering Red Value
  157,                                    !- Rendering Green Value
  120,                                    !- Rendering Blue Value
  ;                                       !- Rendering Alpha Value

OS:DefaultScheduleSet,
  {80279c36-715b-480e-8c5d-6c8d8ecd687e}, !- Handle
  189.1-2009 - Office - BreakRoom - CZ1-3 Schedule Set, !- Name
  ,                                       !- Hours of Operation Schedule Name
  {3040e4e5-625a-4aa9-a8e4-90b331259c47}, !- Number of People Schedule Name
  {efe89fae-35d6-4bfc-a3ec-9dad1f0c42d3}, !- People Activity Level Schedule Name
  {77d26b70-e7a1-4f9e-a256-8bb5c02ab440}, !- Lighting Schedule Name
  {b4d24b8f-5cde-4142-8470-cda3de11372b}, !- Electric Equipment Schedule Name
  ,                                       !- Gas Equipment Schedule Name
  ,                                       !- Hot Water Equipment Schedule Name
  {7580bbd0-05e7-4ce4-825c-349e5af73340}, !- Infiltration Schedule Name
  ,                                       !- Steam Equipment Schedule Name
  ;                                       !- Other Equipment Schedule Name

OS:Lights:Definition,
  {05c61420-a88f-485d-a3ff-26187de07bfd}, !- Handle
  189.1-2009 - Office - BreakRoom - CZ1-3 Lights Definition, !- Name
  Watts/Area,                             !- Design Level Calculation Method
  ,                                       !- Lighting Level {W}
  11.6250232500465,                       !- Watts per Space Floor Area {W/m2}
  ;                                       !- Watts per Person {W/person}

OS:Lights,
  {d0045c27-1a54-4818-83bc-7b185f6e4d94}, !- Handle
  189.1-2009 - Office - BreakRoom - CZ1-3 Lights, !- Name
  {05c61420-a88f-485d-a3ff-26187de07bfd}, !- Lights Definition Name
  {87cb2508-6f28-498f-ac40-d37f9803a00e}, !- Space or SpaceType Name
  ,                                       !- Schedule Name
  1,                                      !- Fraction Replaceable
  ,                                       !- Multiplier
  General;                                !- End-Use Subcategory

OS:Schedule:Ruleset,
  {77d26b70-e7a1-4f9e-a256-8bb5c02ab440}, ! Handle
  Office Bldg Light,                      ! Name
  {56e3760c-d831-495d-87af-d4281044203e}, ! Schedule Type Limits Name
  {59bda883-fe99-47cf-a408-25f8b64878e3}, ! Default Day Schedule Name
  {d3f3f057-a707-453e-9cc5-6514992e581f}, ! Summer Design Day Schedule Name
  {bcbb6d77-15d6-4a24-9cc9-5f812e05fa65}; ! Winter Design Day Schedule Name

OS:ScheduleTypeLimits,
  {56e3760c-d831-495d-87af-d4281044203e}, ! Handle
  Fraction,                               ! Name
  0,                                      ! Lower Limit Value
  1,                                      ! Upper Limit Value
  CONTINUOUS;                             ! Numeric Type

OS:Schedule:Day,
  {59bda883-fe99-47cf-a408-25f8b64878e3}, ! Handle
  Office Bldg Light Default Schedule,     ! Name
  {56e3760c-d831-495d-87af-d4281044203e}, ! Schedule Type Limits Name
  ,                                       ! Interpolate to Timestep
  5,                                      !- Hour 1
  0,                                      !- Minute 1
  0.05,                                   !- Value Until Time 1
  7,                                      !- Hour 2
  0,                                      !- Minute 2
  0.1,                                    !- Value Until Time 2
  8,                                      !- Hour 3
  0,                                      !- Minute 3
  0.3,                                    !- Value Until Time 3
  17,                                     !- Hour 4
  0,                                      !- Minute 4
  0.9,                                    !- Value Until Time 4
  18,                                     !- Hour 5
  0,                                      !- Minute 5
  0.7,                                    !- Value Until Time 5
  20,                                     !- Hour 6
  0,                                      !- Minute 6
  0.5,                                    !- Value Until Time 6
  22,                                     !- Hour 7
  0,                                      !- Minute 7
  0.3,                                    !- Value Until Time 7
  23,                                     !- Hour 8
  0,                                      !- Minute 8
  0.1,                                    !- Value Until Time 8
  24,                                     !- Hour 9
  0,                                      !- Minute 9
  0.05;                                   !- Value Until Time 9

OS:Schedule:Day,
  {d3f3f057-a707-453e-9cc5-6514992e581f}, ! Handle
  Office Bldg Light Summer Design Day,    ! Name
  {56e3760c-d831-495d-87af-d4281044203e}, ! Schedule Type Limits Name
  ,                                       ! Interpolate to Timestep
  24,                                     ! Hour 1
  0,                                      ! Minute 1
  1;                                      ! Value Until Time 1

OS:Schedule:Day,
  {bcbb6d77-15d6-4a24-9cc9-5f812e05fa65}, ! Handle
  Office Bldg Light Winter Design Day,    ! Name
  {56e3760c-d831-495d-87af-d4281044203e}, ! Schedule Type Limits Name
  ,                                       ! Interpolate to Timestep
  24,                                     ! Hour 1
  0,                                      ! Minute 1
  0;                                      ! Value Until Time 1

OS:Schedule:Rule,
  {160c2ffe-0a1e-4b7a-a345-07dd2b5eefc7}, ! Handle
  Office Bldg Light Rule 1,               ! Name
  {77d26b70-e7a1-4f9e-a256-8bb5c02ab440}, ! Schedule Ruleset Name
  0,                                      ! Rule Order
  {9f5e594d-8ba7-493b-9b9a-e5e1d9c80bfc}, ! Day Schedule Name
  Yes,                                    ! Apply Sunday
  No,                                     ! Apply Monday
  No,                                     ! Apply Tuesday
  No,                                     ! Apply Wednesday
  No,                                     ! Apply Thursday
  No,                                     ! Apply Friday
  No,                                     ! Apply Saturday
  ,                                       ! Apply Holiday
  DateRange,                              ! Date Specification Type
  1,                                      ! Start Month
  1,                                      ! Start Day
  12,                                     ! End Month
  31;                                     ! End Day

OS:Schedule:Day,
  {9f5e594d-8ba7-493b-9b9a-e5e1d9c80bfc}, ! Handle
  Office Bldg Light Rule 1 Day Schedule,  ! Name
  {56e3760c-d831-495d-87af-d4281044203e}, ! Schedule Type Limits Name
  ,                                       ! Interpolate to Timestep
  24,                                     ! Hour 1
  0,                                      ! Minute 1
  0.050000000000000003;                   ! Value Until Time 1

OS:Schedule:Rule,
  {70b1f737-b781-4a79-9ae1-0336fbaaaf9d}, ! Handle
  Office Bldg Light Rule 2,               ! Name
  {77d26b70-e7a1-4f9e-a256-8bb5c02ab440}, ! Schedule Ruleset Name
  1,                                      ! Rule Order
  {d499be10-e703-435f-976a-4aebce003e82}, ! Day Schedule Name
  No,                                     ! Apply Sunday
  No,                                     ! Apply Monday
  No,                                     ! Apply Tuesday
  No,                                     ! Apply Wednesday
  No,                                     ! Apply Thursday
  No,                                     ! Apply Friday
  Yes,                                    ! Apply Saturday
  ,                                       ! Apply Holiday
  DateRange,                              ! Date Specification Type
  1,                                      ! Start Month
  1,                                      ! Start Day
  12,                                     ! End Month
  31;                                     ! End Day

OS:Schedule:Day,
  {d499be10-e703-435f-976a-4aebce003e82}, ! Handle
  Office Bldg Light Rule 2 Day Schedule,  ! Name
  {56e3760c-d831-495d-87af-d4281044203e}, ! Schedule Type Limits Name
  ,                                       ! Interpolate to Timestep
  6,                                      ! Hour 1
  0,                                      ! Minute 1
  0.050000000000000003,                   ! Value Until Time 1
  8,                                      ! Hour 2
  0,                                      ! Minute 2
  0.10000000000000001,                    ! Value Until Time 2
  14,                                     ! Hour 3
  0,                                      ! Minute 3
  0.5,                                    ! Value Until Time 3
  17,                                     ! Hour 4
  0,                                      ! Minute 4
  0.14999999999999999,                    ! Value Until Time 4
  24,                                     ! Hour 5
  0,                                      ! Minute 5
  0.050000000000000003;                   ! Value Until Time 5

OS:DesignSpecification:OutdoorAir,
  {8e95baff-ed94-42dd-a7f1-c59e1527a3cc}, !- Handle
  189.1-2009 - Office - BreakRoom - CZ1-3 Ventilation, !- Name
  Sum,                                    !- Outdoor Air Method
  0.007079211648,                         !- Outdoor Air Flow per Person {m3/s-person}
  ,                                       !- Outdoor Air Flow per Floor Area {m3/s-m2}
  ,                                       !- Outdoor Air Flow Rate {m3/s}
  ,                                       !- Outdoor Air Flow Air Changes per Hour {1/hr}
  ;                                       !- Outdoor Air Flow Rate Fraction Schedule Name

OS:People:Definition,
  {7008f59f-ddf7-4662-a7bb-5a3ffc94aed8}, !- Handle
  189.1-2009 - Office - BreakRoom - CZ1-3 People Definition, !- Name
  People/Area,                            !- Number of People Calculation Method
  ,                                       !- Number of People {people}
  0.538195520835486,                      !- People per Space Floor Area {person/m2}
  ,                                       !- Space Floor Area per Person {m2/person}
  0.3;                                    !- Fraction Radiant

OS:People,
  {f78bc0c8-9562-4f9a-9e43-9f6c8bb46112}, !- Handle
  189.1-2009 - Office - BreakRoom - CZ1-3 People, !- Name
  {7008f59f-ddf7-4662-a7bb-5a3ffc94aed8}, !- People Definition Name
  {87cb2508-6f28-498f-ac40-d37f9803a00e}, !- Space or SpaceType Name
  ,                                       !- Number of People Schedule Name
  ,                                       !- Activity Level Schedule Name
  ,                                       !- Surface Name/Angle Factor List Name
  ,                                       !- Work Efficiency Schedule Name
  ,                                       !- Clothing Insulation Schedule Name
  ,                                       !- Air Velocity Schedule Name
  1;                                      !- Multiplier

OS:Schedule:Ruleset,
  {3040e4e5-625a-4aa9-a8e4-90b331259c47}, ! Handle
  Office Misc Occ,                        ! Name
  {56e3760c-d831-495d-87af-d4281044203e}, ! Schedule Type Limits Name
  {010ef7b2-88ae-43c3-ae09-ef5c5cf21433}, ! Default Day Schedule Name
  {72e1f706-7215-4222-b6e3-8d47b8c8659e}, ! Summer Design Day Schedule Name
  {f9b89976-5804-463f-99aa-b1cd00c58b6e}; ! Winter Design Day Schedule Name

OS:Schedule:Day,
  {010ef7b2-88ae-43c3-ae09-ef5c5cf21433}, ! Handle
  Office Bldg Occ Default Schedule 1,     ! Name
  {56e3760c-d831-495d-87af-d4281044203e}, ! Schedule Type Limits Name
  ,                                       ! Interpolate to Timestep
  6,                                      !- Hour 1
  0,                                      !- Minute 1
  0,                                      !- Value Until Time 1
  7,                                      !- Hour 2
  0,                                      !- Minute 2
  0.100000001490116,                      !- Value Until Time 2
  8,                                      !- Hour 3
  0,                                      !- Minute 3
  0.200000002980232,                      !- Value Until Time 3
  20,                                     !- Hour 4
  0,                                      !- Minute 4
  0.400000005960464,                      !- Value Until Time 4
  22,                                     !- Hour 5
  0,                                      !- Minute 5
  0.100000001490116,                      !- Value Until Time 5
  24,                                     !- Hour 6
  0,                                      !- Minute 6
  0.0500000007450581;                     !- Value Until Time 6

OS:Schedule:Day,
  {72e1f706-7215-4222-b6e3-8d47b8c8659e}, ! Handle
  Office Bldg Occ Summer Design Day 1,    ! Name
  {56e3760c-d831-495d-87af-d4281044203e}, ! Schedule Type Limits Name
  ,                                       ! Interpolate to Timestep
  6,                                      ! Hour 1
  0,                                      ! Minute 1
  0,                                      ! Value Until Time 1
  22,                                     ! Hour 2
  0,                                      ! Minute 2
  1,                                      ! Value Until Time 2
  24,                                     ! Hour 3
  0,                                      ! Minute 3
  0.050000000000000003;                   ! Value Until Time 3

OS:Schedule:Day,
  {f9b89976-5804-463f-99aa-b1cd00c58b6e}, ! Handle
  Office Bldg Occ Winter Design Day 1,    ! Name
  {56e3760c-d831-495d-87af-d4281044203e}, ! Schedule Type Limits Name
  ,                                       ! Interpolate to Timestep
  24,                                     ! Hour 1
  0,                                      ! Minute 1
  0;                                      ! Value Until Time 1

OS:Schedule:Rule,
  {227fec43-4862-423e-8f37-3b218bd61802}, ! Handle
  Office Misc Occ Rule 1,                 ! Name
  {3040e4e5-625a-4aa9-a8e4-90b331259c47}, ! Schedule Ruleset Name
  0,                                      ! Rule Order
  {3bdf3d36-c34a-4ad3-bb6b-f6b985759350}, ! Day Schedule Name
  Yes,                                    ! Apply Sunday
  No,                                     ! Apply Monday
  No,                                     ! Apply Tuesday
  No,                                     ! Apply Wednesday
  No,                                     ! Apply Thursday
  No,                                     ! Apply Friday
  No,                                     ! Apply Saturday
  ,                                       ! Apply Holiday
  DateRange,                              ! Date Specification Type
  1,                                      ! Start Month
  1,                                      ! Start Day
  12,                                     ! End Month
  31;                                     ! End Day

OS:Schedule:Day,
  {3bdf3d36-c34a-4ad3-bb6b-f6b985759350}, ! Handle
  Office Bldg Occ Rule 1 Day Schedule 1,  ! Name
  {56e3760c-d831-495d-87af-d4281044203e}, ! Schedule Type Limits Name
  ,                                       ! Interpolate to Timestep
  24,                                     ! Hour 1
  0,                                      ! Minute 1
  0;                                      ! Value Until Time 1

OS:Schedule:Rule,
  {292f9040-f196-4b73-9f58-ef721ea46f14}, ! Handle
  Office Misc Occ Rule 2,                 ! Name
  {3040e4e5-625a-4aa9-a8e4-90b331259c47}, ! Schedule Ruleset Name
  1,                                      ! Rule Order
  {74fc8f5c-c72b-4a0c-a4f9-741b6d8c3f53}, ! Day Schedule Name
  No,                                     ! Apply Sunday
  No,                                     ! Apply Monday
  No,                                     ! Apply Tuesday
  No,                                     ! Apply Wednesday
  No,                                     ! Apply Thursday
  No,                                     ! Apply Friday
  Yes,                                    ! Apply Saturday
  ,                                       ! Apply Holiday
  DateRange,                              ! Date Specification Type
  1,                                      ! Start Month
  1,                                      ! Start Day
  12,                                     ! End Month
  31;                                     ! End Day

OS:Schedule:Day,
  {74fc8f5c-c72b-4a0c-a4f9-741b6d8c3f53}, ! Handle
  Office Bldg Occ Rule 2 Day Schedule 1,  ! Name
  {56e3760c-d831-495d-87af-d4281044203e}, ! Schedule Type Limits Name
  ,                                       ! Interpolate to Timestep
  6,                                      !- Hour 1
  0,                                      !- Minute 1
  0,                                      !- Value Until Time 1
  8,                                      !- Hour 2
  0,                                      !- Minute 2
  0.100000001490116,                      !- Value Until Time 2
  14,                                     !- Hour 3
  0,                                      !- Minute 3
  0.25,                                   !- Value Until Time 3
  17,                                     !- Hour 4
  0,                                      !- Minute 4
  0.100000001490116,                      !- Value Until Time 4
  24,                                     !- Hour 5
  0,                                      !- Minute 5
  0;                                      !- Value Until Time 5

OS:Schedule:Ruleset,
  {efe89fae-35d6-4bfc-a3ec-9dad1f0c42d3}, ! Handle
  Office Activity,                        ! Name
  {9d309c74-d41d-4bca-9fc1-6d2950253dec}, ! Schedule Type Limits Name
  {9f94462b-5597-49ee-bf24-21b802541016}, ! Default Day Schedule Name
  {d01e78ac-ce8b-4ca2-ae61-f800d0cd889c}, ! Summer Design Day Schedule Name
  {82de0bd3-b94a-41ff-a30a-d80e74ec1b49}; ! Winter Design Day Schedule Name

OS:ScheduleTypeLimits,
  {9d309c74-d41d-4bca-9fc1-6d2950253dec}, !- Handle
  ActivityLevel,                          !- Name
  0,                                      !- Lower Limit Value
  ,                                       !- Upper Limit Value
  Continuous,                             !- Numeric Type
  ActivityLevel;                          !- Unit Type

OS:Schedule:Day,
  {9f94462b-5597-49ee-bf24-21b802541016}, ! Handle
  Office Activity Default Schedule,       ! Name
  {9d309c74-d41d-4bca-9fc1-6d2950253dec}, ! Schedule Type Limits Name
  ,                                       ! Interpolate to Timestep
  24,                                     !- Hour 1
  0,                                      !- Minute 1
  132;                                    !- Value Until Time 1

OS:Schedule:Day,
  {d01e78ac-ce8b-4ca2-ae61-f800d0cd889c}, ! Handle
  Office Activity Summer Design Day,      ! Name
  {9d309c74-d41d-4bca-9fc1-6d2950253dec}, ! Schedule Type Limits Name
  ,                                       ! Interpolate to Timestep
  24,                                     !- Hour 1
  0,                                      !- Minute 1
  132;                                    !- Value Until Time 1

OS:Schedule:Day,
  {82de0bd3-b94a-41ff-a30a-d80e74ec1b49}, ! Handle
  Office Activity Winter Design Day,      ! Name
  {9d309c74-d41d-4bca-9fc1-6d2950253dec}, ! Schedule Type Limits Name
  ,                                       ! Interpolate to Timestep
  24,                                     !- Hour 1
  0,                                      !- Minute 1
  132;                                    !- Value Until Time 1

OS:SpaceInfiltration:DesignFlowRate,
  {2bb5516d-3aa6-4f93-99ca-f0c01acd8857}, !- Handle
  189.1-2009 - Office - BreakRoom - CZ1-3 Infiltration, !- Name
  {87cb2508-6f28-498f-ac40-d37f9803a00e}, !- Space or SpaceType Name
  ,                                       !- Schedule Name
  Flow/ExteriorArea,                      !- Design Flow Rate Calculation Method
  ,                                       !- Design Flow Rate {m3/s}
  ,                                       !- Flow per Space Floor Area {m3/s-m2}
  0.00030226,                             !- Flow per Exterior Surface Area {m3/s-m2}
  ,                                       !- Air Changes per Hour {1/hr}
  ,                                       !- Constant Term Coefficient
  ,                                       !- Temperature Term Coefficient
  ,                                       !- Velocity Term Coefficient
  ;                                       !- Velocity Squared Term Coefficient

OS:Schedule:Ruleset,
  {7580bbd0-05e7-4ce4-825c-349e5af73340}, ! Handle
  Office Infil Quarter On,                ! Name
  {56e3760c-d831-495d-87af-d4281044203e}, ! Schedule Type Limits Name
  {2f44d119-7adc-4031-9325-eebda87bb8eb}, ! Default Day Schedule Name